RUNSPEC

METRIC



DIMENS
84  79  118 /

--1-11     - CI 
--12-72    - CII+CIII  
--73-78    - CIV0 
--79-118    - CIV, CV, CVI0, CVI --водоносные

EQLDIMS
5
/

--EQLDIMS
--3
--/

REPORTFILE
ALL LOW
ITERS DEBUG
/ It requests the debug info (errors and deviation)

OIL
WATER


WELLDIMS
-- MaxWells  MaxCompl  MaxGroups   MaxWellsPerGroup   MaxSeparatorStages
     200        200        50             20             /
TABDIMS
--   1       2      3       4      5      6      7
-- NTSFUN  NTPVT  NSSFUN  NPPVT  NTFIP  NRPVT  unused  NTENDP
     5     1      1*     1*     1     1*     /
REGDIMS
--    1      2       3       4        5          6           7
--  NTFIP  NMFIPR  NRFREG  NTFREG  maxTRACK  maxCOALNUM  maxOPERNUM
      5    2       1*      1*       1*         1*          1*   /
FAULTDIM
100000 /

ENDSCALE
/

START
 01 'Aug' 1961 /
/

GRID

NEWTRAN

INCLUDE
'GEOL_0705/grid.grdecl' / -- grid

--INCLUDE
--'GEOL/multpv.map' / 

NOECHO

ARITHMETIC
--PERMX=34828*PORO^4.2978
PERMX=1384518.76*PORO^5.29/10
PERMZ = 0.79*PERMX 
/

COPY
PERMX PERMY /
/

MINPV
0.0001
/

PROPS


DENSITY
890	1175.00 1.265 /
/

PVTW
69.8 1 2.6e-5 1.6 0 /
/

PVCDO
69.8	1.033	6.9e-5	23.3	2.8e-3	/
/

RSCONST
17.5 1 /
/

SCALECRS
YES
/

SWOF
0.1490000	0.0000000	1.0000000	1.0000000	--	KRO	1.00000
0.1712000	0.0002975	0.9011304	0.7845804	--	KRW	0.11900
0.1934000	0.0011900	0.8074771	0.6551044	--	SWC	0.14900
0.2156000	0.0026775	0.7190317	0.5674664	--	SWOCR	0.40700
0.2378000	0.0047600	0.6357855	0.5036313	--	Pc(max)	1.90638
0.2600000	0.0074375	0.5577290	0.4547512	--	PC_curve	
0.2822000	0.0107100	0.4848525	0.4159397	--	no	2.02961
0.3044000	0.0145775	0.4171453	0.3842615	--	nw	2.00000
0.3266000	0.0190400	0.3545960	0.3578396	--	K_abs(air), D	0.182
0.3488000	0.0240975	0.2971925	0.3354133	--	K_abs(oil), D	0.182
0.3710000	0.0297500	0.2449215	0.3161023	 --	a	0.2601
0.3932000	0.0359975	0.1977685	0.2992722	 --	b	-0.708
0.4154000	0.0428400	0.1557175	0.2844528	 --	lower_lim_norm	0.06
0.4376000	0.0502775	0.1187508	0.2712882	 --	upper_lim_norm	1
0.4598000	0.0583100	0.0868482	0.2595034			
0.4820000	0.0669375	0.0599865	0.2488822			
0.5042000	0.0761600	0.0381386	0.2392525			
0.5264000	0.0859775	0.0212710	0.2304752			
0.5486000	0.0963900	0.0093410	0.2224364			
0.5708000	0.1073975	0.0022878	0.2150424			
0.5930000	0.1190000	0.0000000	0.2082147			
0.6511429	0.2448571	0.0000000	0.1925654			
0.7092857	0.3707143	0.0000000	0.1794819			
0.7674286	0.4965714	0.0000000	0.1683555			
0.8255714	0.6224286	0.0000000	0.1587593			
0.8837143	0.7482857	0.0000000	0.1503845			
0.9418571	0.8741429	0.0000000	0.1430017			
1.0000000	1.0000000	0.0000000	0.0000000						
/

0.1170000	0.0000000	1.0000000	1.0000000	--	KRO	1.00000
0.1409000	0.0001550	0.8808954	0.7785828	--	KRW	0.06200
0.1648000	0.0006200	0.7706731	0.6473802	--	SWC	0.11700
0.1887000	0.0013950	0.6691091	0.5592988	--	SWOCR	0.40500
0.2126000	0.0024800	0.5759726	0.4954832	--	Pc(max)	1.90638
0.2365000	0.0038750	0.4910257	0.4468024	--	PC_curve	
0.2604000	0.0055800	0.4140224	0.4082574	--	no	2.47238
0.2843000	0.0075950	0.3447078	0.3768651	--	nw	2.00000
0.3082000	0.0099200	0.2828173	0.3507267	--	K_abs(air). D	0.952
0.3321000	0.0125550	0.2280754	0.3285724	--	K_abs(oil). D	0.952
0.3560000	0.0155000	0.1801939	0.3095181	 --	a	0.2601
0.3799000	0.0187550	0.1388706	0.2929279	 --	b	-0.708
0.4038000	0.0223200	0.1037867	0.2783323	 --	lower_lim_norm	0.06
0.4277000	0.0261950	0.0746043	0.2653759	 --	upper_lim_norm	1
0.4516000	0.0303800	0.0509620	0.2537849			
0.4755000	0.0348750	0.0324698	0.2433443			
0.4994000	0.0396800	0.0187017	0.2338831			
0.5233000	0.0447950	0.0091830	0.2252631			
0.5472000	0.0502200	0.0033699	0.2173717			
0.5711000	0.0559550	0.0006072	0.2101159			
0.5950000	0.0620000	0.0000000	0.2034180			
0.6528571	0.1960000	0.0000000	0.1891382			
0.7107143	0.3300000	0.0000000	0.1770591			
0.7685714	0.4640000	0.0000000	0.1666872			
0.8264286	0.5980000	0.0000000	0.1576692			
0.8842857	0.7320000	0.0000000	0.1497448			
0.9421429	0.8660000	0.0000000	0.1427177			
1.0000000	1.0000000	0.0000000	0.0000000						
/

0.1220000	0.0000000	1.0000000	1.0000000	--	KRO	1.00000
0.1474000	0.0001750	0.9210226	0.7674815	--	KRW	0.07000
0.1728000	0.0007000	0.8445168	0.6332858	--	SWC	0.12200
0.1982000	0.0015750	0.7705362	0.5445275	--	SWOCR	0.37000
0.2236000	0.0028000	0.6991387	0.4808370	--	Pc(max)	1.90638
0.2490000	0.0043750	0.6303871	0.4325774	--	PC_curve	
0.2744000	0.0063000	0.5643499	0.3945557	--	no	1.60393
0.2998000	0.0085750	0.5011025	0.3637080	--	nw	2.00000
0.3252000	0.0112000	0.4407280	0.3381011	--	K_abs(air). D	1.013
0.3506000	0.0141750	0.3833192	0.3164510	--	K_abs(oil). D	1.013
0.3760000	0.0175000	0.3289801	0.2978684	 --	a	0.2601
0.4014000	0.0211750	0.2778293	0.2817170	 --	b	-0.708
0.4268000	0.0252000	0.2300028	0.2675283	 --	lower_lim_norm	0.06
0.4522000	0.0295750	0.1856599	0.2549492	 --	upper_lim_norm	1
0.4776000	0.0343000	0.1449908	0.2437083			
0.5030000	0.0393750	0.1082279	0.2335930			
0.5284000	0.0448000	0.0756663	0.2244346			
0.5538000	0.0505750	0.0476991	0.2160970			
0.5792000	0.0567000	0.0248927	0.2084694			
0.6046000	0.0631750	0.0081892	0.2014605			
0.6300000	0.0700000	0.0000000	0.1949943			
0.6828571	0.2028571	0.0000000	0.1830117			
0.7357143	0.3357143	0.0000000	0.1726638			
0.7885714	0.4685714	0.0000000	0.1636232			
0.8414286	0.6014286	0.0000000	0.1556461			
0.8942857	0.7342857	0.0000000	0.1485468			
0.9471429	0.8671429	0.0000000	0.1421815			
1.0000000	1.0000000	0.0000000	0.0000000			
/

0.1020000	0.0000000	1.0000000	1.0000000	--	KRO	1.00000
0.1289500	0.0002400	0.9127168	0.7612071	--	KRW	0.09600
0.1559000	0.0009600	0.8289476	0.6254334	--	SWC	0.10200
0.1828500	0.0021600	0.7487344	0.5363708	--	SWOCR	0.35900
0.2098000	0.0038400	0.6721220	0.4727980	--	Pc(max)	1.90638
0.2367500	0.0060000	0.5991588	0.4248036	--	PC_curve	
0.2637000	0.0086400	0.5298968	0.3870926	--	no	1.78054
0.2906500	0.0117600	0.4643926	0.3565601	--	nw	2.00000
0.3176000	0.0153600	0.4027079	0.3312563	--	K_abs(air). D	2.119
0.3445500	0.0194400	0.3449103	0.3098907	--	K_abs(oil). D	2.119
0.3715000	0.0240000	0.2910750	0.2915725	 --	a	0.2601
0.3984500	0.0290400	0.2412860	0.2756655	 --	b	-0.708
0.4254000	0.0345600	0.1956380	0.2617026	 --	lower_lim_norm	0.06
0.4523500	0.0405600	0.1542397	0.2493321	 --	upper_lim_norm	1
0.4793000	0.0470400	0.1172182	0.2382841			
0.5062500	0.0540000	0.0847247	0.2283477			
0.5332000	0.0614400	0.0569453	0.2193553			
0.5601500	0.0693600	0.0341193	0.2111722			
0.5871000	0.0777600	0.0165754	0.2036887			
0.6140500	0.0866400	0.0048247	0.1968146			
0.6410000	0.0960000	0.0000000	0.1904747			
0.6922857	0.2251429	0.0000000	0.1796671			
0.7435714	0.3542857	0.0000000	0.1702294			
0.7948571	0.4834286	0.0000000	0.1619051			
0.8461429	0.6125714	0.0000000	0.1544995			
0.8974286	0.7417143	0.0000000	0.1478615			
0.9487143	0.8708571	0.0000000	0.1418723			
1.0000000	1.0000000	0.0000000	0.0000000			
/

0.0600000	0.0000000	1.0000000	1.0000000	--	KRO	1.00000
0.0918500	0.0001750	0.8851657	0.7397263	--	KRW	0.07000
0.1237000	0.0007000	0.7783667	0.5991469	--	SWC	0.06000
0.1555500	0.0015750	0.6794404	0.5094330	--	SWOCR	0.30300
0.1874000	0.0028000	0.5882184	0.4464884	--	Pc(max)	1.90638
0.2192500	0.0043750	0.5045260	0.3995267	--	PC_curve	
0.2511000	0.0063000	0.4281817	0.3629440	--	no	2.37810
0.2829500	0.0085750	0.3589962	0.3335190	--	nw	2.00000
0.3148000	0.0112000	0.2967715	0.3092591	--	K_abs(air). D	3.355
0.3466500	0.0141750	0.2413000	0.2888605	--	K_abs(oil). D	3.355
0.3785000	0.0175000	0.1923630	0.2714316	 --	a	0.2601
0.4103500	0.0211750	0.1497290	0.2563408	 --	b	-0.708
0.4422000	0.0252000	0.1131515	0.2431269	 --	lower_lim_norm	0.06
0.4740500	0.0295750	0.0823663	0.2314449	 --	upper_lim_norm	1
0.5059000	0.0343000	0.0570879	0.2210311			
0.5377500	0.0393750	0.0370035	0.2116802			
0.5696000	0.0448000	0.0217662	0.2032299			
0.6014500	0.0505750	0.0109816	0.1955500			
0.6333000	0.0567000	0.0041870	0.1885348			
0.6651500	0.0631750	0.0008054	0.1820975			
0.6970000	0.0700000	0.0000000	0.1761661			
0.7402857	0.2028571	0.0000000	0.1688093			
0.7835714	0.3357143	0.0000000	0.1621524			
0.8268571	0.4685714	0.0000000	0.1560955			
0.8701429	0.6014286	0.0000000	0.1505570			
0.9134286	0.7342857	0.0000000	0.1454700			
0.9567143	0.8671429	0.0000000	0.1407788			
1.0000000	1.0000000	0.0000000	0.0000000			
/


ARITHMETIC
PCW=1.9*28*0.318316*((poro/permx)^0.5)
SWL=19.72*(PORO*100)^(-1.714)
SWL = MIN(0.6, SWL)
SWCR=SWL
SOWCR = (-3.258*LOG(PERMX/1000)+29.385)/100
SOWCR = MAX(0,SOWCR)
/

ROCK
69.8 8.5E-5 /
/

REGIONS

ARITHMETIC
pvtnum(,,1:118)=1 
satnum(,,1:118)=1*(PERMX<=567)+2*((PERMX>567)&(PERMX<=982.5))+3*((PERMX>982.5)&(PERMX<=1566))+4*((PERMX>1566)&(PERMX<=2737))+5*(PERMX>2737)
eqlnum(,,1:11)=1 
eqlnum(,,12:72)=2 
eqlnum(,,73:78)=3 
eqlnum(,,79:118)=4
rocknum=pvtnum 
/




SOLUTION

EQUIL
1185.6   144   1185.6    1*     1*    1*    1 1       0       1*   / Пласт CI ( ВНК 1185,6 м);
1185.6 144   1197    1*     1*    1*    1 1       0       1*   /       Пласт CII+CIII (ВНК 1195 м или 1197 м);  
1185.6 144   1200.5    1*     1*    1*    1 1       0       1*   /   Пласт CIV0 (ВНК 1200,5 м);
/

RECU

Delt 1 month
Rate 1 month EXACT FIELD WELL end
Freq 1  1  1


Array EQUA year end
1 /
GENE rest

EFOR WELL 'DD.MM.YYYY' MDL MDU RAD SKIN MULT

EUNI METRes METRes /

HFOR WELL 'DD.MM.YYYY' QOIL QWAT QWIN WEFA THP BHP

HUNI
sm3/day sm3/day ksm3 ksm3 bara /

INCLUDE 
  'GEOL_0705\Well.dat' /
INCLUDE 
  'INCL_1\Perf.txt' /
INCLUDE 
  'INCL_1\event.inc' /
INCLUDE 
  'INCL_1\hist.inc' /

READ 1 apr 2014 /

STOP
